/*--------------------------------*- C++ -*----------------------------------*\
| =========                 |                                                 |
| \\      /  F ield         | OpenFOAM: The Open Source CFD Toolbox           |
|  \\    /   O peration     | Version:  2406                                  |
|   \\  /    A nd           | Website:  www.openfoam.com                      |
|    \\/     M anipulation  |                                                 |
\*---------------------------------------------------------------------------*/
FoamFile
{
    version     2.0;
    format      ascii;
    arch        "LSB;label=32;scalar=64";
    class       polyBoundaryMesh;
    location    "constant/polyMesh";
    object      boundary;
}
// * * * * * * * * * * * * * * * * * * * * * * * * * * * * * * * * * * * * * //

3
(
    frontAndBack
    {
        type            empty;
        inGroups        1(empty);
        nFaces          421940;
        startFace       420872;
    }
    farfield
    {
        type            patch;
        nFaces          1581;
        startFace       842812;
    }
    airfoil
    {
        type            wall;
        inGroups        1(wall);
        nFaces          555;
        startFace       844393;
    }
)

// ************************************************************************* //
